.SUBCKT SDR1307-820KL 1 2 
*Date: Fri Oct 11 14:14:08 2013
*PortZ  Port1:50+j0    Port2:50+j0
* Hz S dB R 50

R1N 1 10 -5.000000e+001
R1P 10 11 1.000000e+002
R2N 2 20 -5.000000e+001
R2P 20 21 1.000000e+002

*S11 FREQ DB PHASE
E11 11 12 FREQ {V(10,3)}= DB
+( 9.000000e+003,-2.659637e+001, 8.334577e+001)
+( 1.089550e+005,-7.250635e+000, 6.032673e+001)
+( 2.089100e+005,-3.688845e+000, 4.505373e+001)
+( 3.088650e+005,-2.218021e+000, 3.539887e+001)
+( 4.088200e+005,-1.468478e+000, 2.890785e+001)
+( 5.087750e+005,-1.040417e+000, 2.425943e+001)
+( 6.087300e+005,-7.733908e-001, 2.081853e+001)
+( 7.086850e+005,-5.990773e-001, 1.818549e+001)
+( 8.086400e+005,-4.780257e-001, 1.610026e+001)
+( 9.085950e+005,-3.878420e-001, 1.441900e+001)
+( 1.008550e+006,-3.227366e-001, 1.303071e+001)
+( 1.108505e+006,-2.717199e-001, 1.186755e+001)
+( 1.208460e+006,-2.337055e-001, 1.087844e+001)
+( 1.308415e+006,-2.022919e-001, 1.002971e+001)
+( 1.408370e+006,-1.783970e-001, 9.279771e+000)
+( 1.508325e+006,-1.577525e-001, 8.619654e+000)
+( 1.608280e+006,-1.397745e-001, 8.045616e+000)
+( 1.708235e+006,-1.255090e-001, 7.527224e+000)
+( 1.808190e+006,-1.118049e-001, 7.048247e+000)
+( 1.908145e+006,-1.003221e-001, 6.620351e+000)
+( 2.008100e+006,-9.117269e-002, 6.218352e+000)
+( 2.108055e+006,-8.474699e-002, 5.880667e+000)
+( 2.208010e+006,-7.692344e-002, 5.536421e+000)
+( 2.307965e+006,-7.118508e-002, 5.230601e+000)
+( 2.407920e+006,-6.547862e-002, 4.950390e+000)
+( 2.507875e+006,-5.964558e-002, 4.686649e+000)
+( 2.607830e+006,-5.846685e-002, 4.452550e+000)
+( 2.707785e+006,-5.157168e-002, 4.223985e+000)
+( 2.807740e+006,-4.872966e-002, 3.987884e+000)
+( 2.907695e+006,-4.628859e-002, 3.777920e+000)
+( 3.007650e+006,-4.523191e-002, 3.585814e+000)
+( 3.107605e+006,-4.141584e-002, 3.414069e+000)
+( 3.207560e+006,-3.760631e-002, 3.241418e+000)
+( 3.307515e+006,-3.672615e-002, 3.072995e+000)
+( 3.407470e+006,-3.429826e-002, 2.910896e+000)
+( 3.507425e+006,-3.228576e-002, 2.751982e+000)
+( 3.607380e+006,-3.090119e-002, 2.600569e+000)
+( 3.707335e+006,-3.017059e-002, 2.470342e+000)
+( 3.807290e+006,-2.824067e-002, 2.318633e+000)
+( 3.907245e+006,-2.757421e-002, 2.196866e+000)
+( 4.007200e+006,-2.581976e-002, 2.068743e+000)
+( 4.107155e+006,-2.438029e-002, 1.942783e+000)
+( 4.207110e+006,-2.527726e-002, 1.836601e+000)
+( 4.307065e+006,-2.284929e-002, 1.719724e+000)
+( 4.407020e+006,-2.331322e-002, 1.605947e+000)
+( 4.506975e+006,-2.278446e-002, 1.501267e+000)
+( 4.606930e+006,-2.083081e-002, 1.387742e+000)
+( 4.706885e+006,-2.054786e-002, 1.291743e+000)
+( 4.806840e+006,-2.157021e-002, 1.198219e+000)
+( 4.906795e+006,-2.009275e-002, 1.095558e+000)
+( 5.006750e+006,-1.992662e-002, 1.003688e+000)
+( 5.106705e+006,-1.890508e-002, 9.134983e-001)
+( 5.206660e+006,-1.787372e-002, 8.161025e-001)
+( 5.306615e+006,-1.930398e-002, 7.344811e-001)
+( 5.406570e+006,-1.730717e-002, 6.435775e-001)
+( 5.506525e+006,-1.752614e-002, 5.646370e-001)
+( 5.606480e+006,-1.818010e-002, 4.823526e-001)
+( 5.706435e+006,-1.744490e-002, 4.130742e-001)
+( 5.806390e+006,-1.642498e-002, 3.290515e-001)
+( 5.906345e+006,-1.743819e-002, 2.406778e-001)
+( 6.006300e+006,-1.793747e-002, 1.659257e-001)
+( 6.106255e+006,-1.670506e-002, 8.223606e-002)
+( 6.206210e+006,-1.680312e-002, 2.532320e-002)
+( 6.306165e+006,-1.739948e-002,-4.897842e-002)
+( 6.406120e+006,-1.585487e-002,-1.234569e-001)
+( 6.506075e+006,-1.697962e-002,-1.928553e-001)
+( 6.606030e+006,-1.675544e-002,-2.577428e-001)
+( 6.705985e+006,-1.680785e-002,-3.282541e-001)
+( 6.805940e+006,-1.558763e-002,-3.975106e-001)
+( 6.905895e+006,-1.572816e-002,-4.634730e-001)
+( 7.005850e+006,-1.628816e-002,-5.306676e-001)
+( 7.105805e+006,-1.585181e-002,-5.898573e-001)
+( 7.205760e+006,-1.682673e-002,-6.569501e-001)
+( 7.305715e+006,-1.635612e-002,-7.204482e-001)
+( 7.405670e+006,-1.645095e-002,-7.845424e-001)
+( 7.505625e+006,-1.551895e-002,-8.450068e-001)
+( 7.605580e+006,-1.719619e-002,-9.054117e-001)
+( 7.705535e+006,-1.674516e-002,-9.659302e-001)
+( 7.805490e+006,-1.730620e-002,-1.023322e+000)
+( 7.905445e+006,-1.676628e-002,-1.084029e+000)
+( 8.005400e+006,-1.742247e-002,-1.148397e+000)
+( 8.105355e+006,-1.820816e-002,-1.201042e+000)
+( 8.205310e+006,-1.800498e-002,-1.259701e+000)
+( 8.305265e+006,-1.730064e-002,-1.317124e+000)
+( 8.405220e+006,-1.732289e-002,-1.379161e+000)
+( 8.505175e+006,-1.814224e-002,-1.432194e+000)
+( 8.605130e+006,-1.780218e-002,-1.485913e+000)
+( 8.705085e+006,-1.878132e-002,-1.539421e+000)
+( 8.805040e+006,-1.855081e-002,-1.596918e+000)
+( 8.904995e+006,-1.862409e-002,-1.651271e+000)
+( 9.004950e+006,-1.919204e-002,-1.710769e+000)
+( 9.104905e+006,-1.876721e-002,-1.756326e+000)
+( 9.204860e+006,-1.909645e-002,-1.812626e+000)
+( 9.304815e+006,-1.836415e-002,-1.866754e+000)
+( 9.404770e+006,-1.931134e-002,-1.918058e+000)
+( 9.504725e+006,-2.036157e-002,-1.965268e+000)
+( 9.604680e+006,-2.023316e-002,-2.021858e+000)
+( 9.704635e+006,-2.123804e-002,-2.073286e+000)
+( 9.804590e+006,-1.982502e-002,-2.119820e+000)
+( 9.904545e+006,-2.125693e-002,-2.178535e+000)
+( 1.000450e+007,-2.226962e-002,-2.224485e+000)
+( 1.010446e+007,-2.156024e-002,-2.273248e+000)
+( 1.020441e+007,-2.202695e-002,-2.324210e+000)
+( 1.030437e+007,-2.156912e-002,-2.376163e+000)
+( 1.040432e+007,-2.207711e-002,-2.425004e+000)
+( 1.050428e+007,-2.229902e-002,-2.477249e+000)
+( 1.060423e+007,-2.326750e-002,-2.518187e+000)
+( 1.070419e+007,-2.430170e-002,-2.571598e+000)
+( 1.080414e+007,-2.347530e-002,-2.620220e+000)
+( 1.090410e+007,-2.476376e-002,-2.668136e+000)
+( 1.100405e+007,-2.483852e-002,-2.718314e+000)
+( 1.110401e+007,-2.556484e-002,-2.765798e+000)
+( 1.120396e+007,-2.558599e-002,-2.812965e+000)
+( 1.130392e+007,-2.616115e-002,-2.858995e+000)
+( 1.140387e+007,-2.647245e-002,-2.906935e+000)
+( 1.150383e+007,-2.642918e-002,-2.958180e+000)
+( 1.160378e+007,-2.597391e-002,-3.003039e+000)
+( 1.170374e+007,-2.768265e-002,-3.048062e+000)
+( 1.180369e+007,-2.784790e-002,-3.100217e+000)
+( 1.190365e+007,-2.816620e-002,-3.146857e+000)
+( 1.200360e+007,-2.776955e-002,-3.188017e+000)
+( 1.210356e+007,-2.839495e-002,-3.236091e+000)
+( 1.220351e+007,-2.844590e-002,-3.281994e+000)
+( 1.230347e+007,-2.850002e-002,-3.327022e+000)
+( 1.240342e+007,-2.934688e-002,-3.371220e+000)
+( 1.250338e+007,-3.077097e-002,-3.414344e+000)
+( 1.260333e+007,-3.080061e-002,-3.459070e+000)
+( 1.270329e+007,-3.093917e-002,-3.511286e+000)
+( 1.280324e+007,-3.165166e-002,-3.553032e+000)
+( 1.290320e+007,-3.121879e-002,-3.594833e+000)
+( 1.300315e+007,-3.163447e-002,-3.641482e+000)
+( 1.310311e+007,-3.306450e-002,-3.685264e+000)
+( 1.320306e+007,-3.244987e-002,-3.728838e+000)
+( 1.330302e+007,-3.375295e-002,-3.773469e+000)
+( 1.340297e+007,-3.277070e-002,-3.814682e+000)
+( 1.350293e+007,-3.375315e-002,-3.858817e+000)
+( 1.360288e+007,-3.465023e-002,-3.903637e+000)
+( 1.370284e+007,-3.467590e-002,-3.949764e+000)
+( 1.380279e+007,-3.520009e-002,-3.994533e+000)
+( 1.390275e+007,-3.552895e-002,-4.035377e+000)
+( 1.400270e+007,-3.617786e-002,-4.084225e+000)
+( 1.410266e+007,-3.684710e-002,-4.125308e+000)
+( 1.420261e+007,-3.696253e-002,-4.165430e+000)
+( 1.430257e+007,-3.784489e-002,-4.212940e+000)
+( 1.440252e+007,-3.834037e-002,-4.258653e+000)
+( 1.450248e+007,-3.811716e-002,-4.299762e+000)
+( 1.460243e+007,-3.934302e-002,-4.345296e+000)
+( 1.470239e+007,-3.974010e-002,-4.382794e+000)
+( 1.480234e+007,-3.963101e-002,-4.427685e+000)
+( 1.490230e+007,-4.059797e-002,-4.462410e+000)
+( 1.500225e+007,-4.125764e-002,-4.511810e+000)
+( 1.510221e+007,-4.146897e-002,-4.553212e+000)
+( 1.520216e+007,-4.210038e-002,-4.602289e+000)
+( 1.530212e+007,-4.308909e-002,-4.635402e+000)
+( 1.540207e+007,-4.249230e-002,-4.679399e+000)
+( 1.550203e+007,-4.370012e-002,-4.720907e+000)
+( 1.560198e+007,-4.405875e-002,-4.765682e+000)
+( 1.570194e+007,-4.533492e-002,-4.803017e+000)
+( 1.580189e+007,-4.529583e-002,-4.844041e+000)
+( 1.590185e+007,-4.530549e-002,-4.890559e+000)
+( 1.600180e+007,-4.635769e-002,-4.930191e+000)
+( 1.610176e+007,-4.630116e-002,-4.975641e+000)
+( 1.620171e+007,-4.644707e-002,-5.015782e+000)
+( 1.630167e+007,-4.767552e-002,-5.053906e+000)
+( 1.640162e+007,-4.810498e-002,-5.096721e+000)
+( 1.650158e+007,-4.862954e-002,-5.134758e+000)
+( 1.660153e+007,-4.990634e-002,-5.183029e+000)
+( 1.670149e+007,-4.950620e-002,-5.218429e+000)
+( 1.680144e+007,-5.138509e-002,-5.264206e+000)
+( 1.690140e+007,-5.102859e-002,-5.301596e+000)
+( 1.700135e+007,-5.157363e-002,-5.345444e+000)
+( 1.710131e+007,-5.241230e-002,-5.386620e+000)
+( 1.720126e+007,-5.228151e-002,-5.429021e+000)
+( 1.730122e+007,-5.336551e-002,-5.467424e+000)
+( 1.740117e+007,-5.400492e-002,-5.512988e+000)
+( 1.750113e+007,-5.385019e-002,-5.553064e+000)
+( 1.760108e+007,-5.508758e-002,-5.589942e+000)
+( 1.770104e+007,-5.584301e-002,-5.631017e+000)
+( 1.780099e+007,-5.717680e-002,-5.672435e+000)
+( 1.790095e+007,-5.666027e-002,-5.712152e+000)
+( 1.800090e+007,-5.728833e-002,-5.752065e+000)
+( 1.810086e+007,-5.790735e-002,-5.789437e+000)
+( 1.820081e+007,-5.837473e-002,-5.836445e+000)
+( 1.830077e+007,-5.929655e-002,-5.868381e+000)
+( 1.840072e+007,-6.010559e-002,-5.917492e+000)
+( 1.850068e+007,-6.053766e-002,-5.952025e+000)
+( 1.860063e+007,-6.115534e-002,-5.995900e+000)
+( 1.870059e+007,-6.168684e-002,-6.036337e+000)
+( 1.880054e+007,-6.251720e-002,-6.071245e+000)
+( 1.890050e+007,-6.303602e-002,-6.106584e+000)
+( 1.900045e+007,-6.411727e-002,-6.152257e+000)
+( 1.910041e+007,-6.350531e-002,-6.193890e+000)
+( 1.920036e+007,-6.456394e-002,-6.235092e+000)
+( 1.930032e+007,-6.564411e-002,-6.273640e+000)
+( 1.940027e+007,-6.615406e-002,-6.310571e+000)
+( 1.950023e+007,-6.753198e-002,-6.347747e+000)
+( 1.960018e+007,-6.812394e-002,-6.394069e+000)
+( 1.970014e+007,-6.864241e-002,-6.433078e+000)
+( 1.980009e+007,-6.898784e-002,-6.466586e+000)
+( 1.990005e+007,-6.974900e-002,-6.510923e+000)
+( 2.000000e+007,-7.044725e-002,-6.549011e+000)

*S12 FREQ DB PHASE
E12 12 3 FREQ {V(20,3)}= DB
+( 9.000000e+003,-4.951196e-002,-2.548093e+000)
+( 1.089550e+005,-1.200431e+000,-2.559021e+001)
+( 2.089100e+005,-2.976638e+000,-4.063586e+001)
+( 3.088650e+005,-4.716822e+000,-5.052465e+001)
+( 4.088200e+005,-6.293572e+000,-5.736347e+001)
+( 5.087750e+005,-7.707093e+000,-6.225136e+001)
+( 6.087300e+005,-8.964020e+000,-6.590259e+001)
+( 7.086850e+005,-1.009537e+001,-6.866416e+001)
+( 8.086400e+005,-1.111855e+001,-7.089965e+001)
+( 9.085950e+005,-1.204994e+001,-7.267765e+001)
+( 1.008550e+006,-1.291079e+001,-7.413023e+001)
+( 1.108505e+006,-1.370795e+001,-7.536149e+001)
+( 1.208460e+006,-1.445465e+001,-7.641581e+001)
+( 1.308415e+006,-1.515572e+001,-7.732011e+001)
+( 1.408370e+006,-1.581338e+001,-7.809672e+001)
+( 1.508325e+006,-1.644290e+001,-7.874743e+001)
+( 1.608280e+006,-1.703976e+001,-7.940223e+001)
+( 1.708235e+006,-1.761418e+001,-7.993331e+001)
+( 1.808190e+006,-1.816829e+001,-8.039527e+001)
+( 1.908145e+006,-1.870442e+001,-8.083385e+001)
+( 2.008100e+006,-1.922649e+001,-8.117564e+001)
+( 2.108055e+006,-1.972537e+001,-8.153886e+001)
+( 2.208010e+006,-2.021611e+001,-8.189058e+001)
+( 2.307965e+006,-2.070322e+001,-8.212244e+001)
+( 2.407920e+006,-2.117604e+001,-8.244411e+001)
+( 2.507875e+006,-2.164168e+001,-8.267547e+001)
+( 2.607830e+006,-2.211784e+001,-8.288753e+001)
+( 2.707785e+006,-2.255654e+001,-8.304793e+001)
+( 2.807740e+006,-2.301901e+001,-8.324401e+001)
+( 2.907695e+006,-2.346152e+001,-8.338645e+001)
+( 3.007650e+006,-2.391310e+001,-8.355173e+001)
+( 3.107605e+006,-2.435227e+001,-8.365586e+001)
+( 3.207560e+006,-2.481157e+001,-8.379553e+001)
+( 3.307515e+006,-2.526131e+001,-8.391852e+001)
+( 3.407470e+006,-2.571607e+001,-8.392146e+001)
+( 3.507425e+006,-2.616660e+001,-8.403670e+001)
+( 3.607380e+006,-2.662619e+001,-8.405283e+001)
+( 3.707335e+006,-2.708814e+001,-8.410833e+001)
+( 3.807290e+006,-2.756188e+001,-8.417422e+001)
+( 3.907245e+006,-2.804389e+001,-8.408489e+001)
+( 4.007200e+006,-2.853933e+001,-8.409553e+001)
+( 4.107155e+006,-2.903028e+001,-8.405220e+001)
+( 4.207110e+006,-2.953747e+001,-8.385962e+001)
+( 4.307065e+006,-3.007032e+001,-8.381866e+001)
+( 4.407020e+006,-3.062109e+001,-8.363868e+001)
+( 4.506975e+006,-3.117554e+001,-8.362665e+001)
+( 4.606930e+006,-3.176709e+001,-8.339699e+001)
+( 4.706885e+006,-3.235033e+001,-8.316894e+001)
+( 4.806840e+006,-3.296485e+001,-8.291971e+001)
+( 4.906795e+006,-3.364307e+001,-8.236779e+001)
+( 5.006750e+006,-3.434497e+001,-8.229221e+001)
+( 5.106705e+006,-3.505756e+001,-8.187472e+001)
+( 5.206660e+006,-3.585451e+001,-8.118881e+001)
+( 5.306615e+006,-3.670293e+001,-8.032058e+001)
+( 5.406570e+006,-3.755671e+001,-7.973980e+001)
+( 5.506525e+006,-3.861042e+001,-7.890056e+001)
+( 5.606480e+006,-3.967467e+001,-7.787159e+001)
+( 5.706435e+006,-4.084229e+001,-7.599683e+001)
+( 5.806390e+006,-4.225527e+001,-7.351111e+001)
+( 5.906345e+006,-4.387971e+001,-7.076227e+001)
+( 6.006300e+006,-4.566161e+001,-6.658477e+001)
+( 6.106255e+006,-4.769767e+001,-5.954291e+001)
+( 6.206210e+006,-5.036490e+001,-4.798763e+001)
+( 6.306165e+006,-5.280328e+001,-2.758801e+001)
+( 6.406120e+006,-5.371064e+001, 5.869662e+000)
+( 6.506075e+006,-5.230665e+001, 3.438979e+001)
+( 6.606030e+006,-4.968340e+001, 5.085262e+001)
+( 6.705985e+006,-4.744605e+001, 6.084179e+001)
+( 6.805940e+006,-4.563226e+001, 6.695318e+001)
+( 6.905895e+006,-4.400109e+001, 7.083242e+001)
+( 7.005850e+006,-4.262634e+001, 7.354173e+001)
+( 7.105805e+006,-4.153612e+001, 7.574864e+001)
+( 7.205760e+006,-4.043883e+001, 7.719081e+001)
+( 7.305715e+006,-3.953737e+001, 7.834881e+001)
+( 7.405670e+006,-3.870539e+001, 7.928596e+001)
+( 7.505625e+006,-3.799812e+001, 8.007086e+001)
+( 7.605580e+006,-3.728608e+001, 8.060079e+001)
+( 7.705535e+006,-3.669989e+001, 8.143299e+001)
+( 7.805490e+006,-3.610448e+001, 8.162203e+001)
+( 7.905445e+006,-3.554046e+001, 8.224415e+001)
+( 8.005400e+006,-3.502953e+001, 8.265335e+001)
+( 8.105355e+006,-3.459276e+001, 8.264723e+001)
+( 8.205310e+006,-3.414038e+001, 8.301646e+001)
+( 8.305265e+006,-3.371986e+001, 8.301536e+001)
+( 8.405220e+006,-3.334903e+001, 8.349047e+001)
+( 8.505175e+006,-3.298729e+001, 8.360959e+001)
+( 8.605130e+006,-3.261047e+001, 8.371221e+001)
+( 8.705085e+006,-3.226184e+001, 8.393965e+001)
+( 8.805040e+006,-3.195652e+001, 8.384004e+001)
+( 8.904995e+006,-3.162245e+001, 8.401376e+001)
+( 9.004950e+006,-3.135042e+001, 8.420884e+001)
+( 9.104905e+006,-3.104658e+001, 8.423426e+001)
+( 9.204860e+006,-3.077847e+001, 8.439405e+001)
+( 9.304815e+006,-3.052547e+001, 8.446776e+001)
+( 9.404770e+006,-3.026176e+001, 8.449865e+001)
+( 9.504725e+006,-3.001686e+001, 8.454984e+001)
+( 9.604680e+006,-2.977914e+001, 8.458319e+001)
+( 9.704635e+006,-2.954942e+001, 8.464261e+001)
+( 9.804590e+006,-2.933029e+001, 8.467512e+001)
+( 9.904545e+006,-2.911186e+001, 8.468626e+001)
+( 1.000450e+007,-2.890310e+001, 8.472542e+001)
+( 1.010446e+007,-2.870417e+001, 8.475910e+001)
+( 1.020441e+007,-2.850503e+001, 8.476790e+001)
+( 1.030437e+007,-2.831340e+001, 8.477508e+001)
+( 1.040432e+007,-2.812538e+001, 8.479054e+001)
+( 1.050428e+007,-2.794563e+001, 8.479873e+001)
+( 1.060423e+007,-2.776694e+001, 8.480804e+001)
+( 1.070419e+007,-2.759533e+001, 8.481266e+001)
+( 1.080414e+007,-2.742756e+001, 8.483249e+001)
+( 1.090410e+007,-2.726323e+001, 8.480269e+001)
+( 1.100405e+007,-2.710070e+001, 8.480446e+001)
+( 1.110401e+007,-2.694299e+001, 8.480631e+001)
+( 1.120396e+007,-2.679189e+001, 8.480998e+001)
+( 1.130392e+007,-2.664010e+001, 8.479838e+001)
+( 1.140387e+007,-2.649212e+001, 8.480489e+001)
+( 1.150383e+007,-2.635065e+001, 8.478971e+001)
+( 1.160378e+007,-2.620856e+001, 8.477195e+001)
+( 1.170374e+007,-2.606973e+001, 8.474747e+001)
+( 1.180369e+007,-2.593351e+001, 8.475796e+001)
+( 1.190365e+007,-2.580164e+001, 8.473448e+001)
+( 1.200360e+007,-2.567274e+001, 8.471987e+001)
+( 1.210356e+007,-2.554294e+001, 8.470346e+001)
+( 1.220351e+007,-2.541744e+001, 8.470161e+001)
+( 1.230347e+007,-2.529232e+001, 8.467123e+001)
+( 1.240342e+007,-2.517107e+001, 8.466558e+001)
+( 1.250338e+007,-2.505390e+001, 8.462830e+001)
+( 1.260333e+007,-2.493631e+001, 8.463270e+001)
+( 1.270329e+007,-2.482104e+001, 8.459701e+001)
+( 1.280324e+007,-2.470777e+001, 8.457120e+001)
+( 1.290320e+007,-2.459476e+001, 8.455725e+001)
+( 1.300315e+007,-2.448427e+001, 8.453966e+001)
+( 1.310311e+007,-2.437791e+001, 8.452526e+001)
+( 1.320306e+007,-2.426932e+001, 8.449989e+001)
+( 1.330302e+007,-2.416587e+001, 8.446998e+001)
+( 1.340297e+007,-2.406163e+001, 8.444317e+001)
+( 1.350293e+007,-2.396116e+001, 8.442036e+001)
+( 1.360288e+007,-2.386001e+001, 8.439740e+001)
+( 1.370284e+007,-2.376204e+001, 8.436825e+001)
+( 1.380279e+007,-2.366423e+001, 8.434613e+001)
+( 1.390275e+007,-2.356582e+001, 8.432284e+001)
+( 1.400270e+007,-2.347056e+001, 8.428316e+001)
+( 1.410266e+007,-2.337960e+001, 8.425980e+001)
+( 1.420261e+007,-2.328518e+001, 8.423263e+001)
+( 1.430257e+007,-2.319377e+001, 8.421001e+001)
+( 1.440252e+007,-2.310339e+001, 8.418625e+001)
+( 1.450248e+007,-2.301536e+001, 8.415358e+001)
+( 1.460243e+007,-2.292644e+001, 8.413555e+001)
+( 1.470239e+007,-2.283996e+001, 8.410281e+001)
+( 1.480234e+007,-2.275459e+001, 8.407796e+001)
+( 1.490230e+007,-2.266986e+001, 8.404644e+001)
+( 1.500225e+007,-2.258698e+001, 8.401121e+001)
+( 1.510221e+007,-2.250424e+001, 8.398952e+001)
+( 1.520216e+007,-2.242156e+001, 8.395471e+001)
+( 1.530212e+007,-2.234166e+001, 8.394012e+001)
+( 1.540207e+007,-2.226056e+001, 8.389218e+001)
+( 1.550203e+007,-2.218174e+001, 8.386273e+001)
+( 1.560198e+007,-2.210264e+001, 8.383397e+001)
+( 1.570194e+007,-2.202724e+001, 8.380707e+001)
+( 1.580189e+007,-2.194884e+001, 8.377438e+001)
+( 1.590185e+007,-2.187542e+001, 8.373980e+001)
+( 1.600180e+007,-2.179944e+001, 8.371384e+001)
+( 1.610176e+007,-2.172429e+001, 8.368745e+001)
+( 1.620171e+007,-2.165066e+001, 8.365127e+001)
+( 1.630167e+007,-2.157851e+001, 8.360940e+001)
+( 1.640162e+007,-2.150678e+001, 8.359357e+001)
+( 1.650158e+007,-2.143559e+001, 8.355723e+001)
+( 1.660153e+007,-2.136572e+001, 8.353173e+001)
+( 1.670149e+007,-2.129433e+001, 8.349708e+001)
+( 1.680144e+007,-2.122502e+001, 8.346400e+001)
+( 1.690140e+007,-2.115736e+001, 8.343372e+001)
+( 1.700135e+007,-2.108823e+001, 8.339832e+001)
+( 1.710131e+007,-2.102165e+001, 8.336718e+001)
+( 1.720126e+007,-2.095377e+001, 8.334385e+001)
+( 1.730122e+007,-2.088820e+001, 8.330146e+001)
+( 1.740117e+007,-2.082379e+001, 8.328287e+001)
+( 1.750113e+007,-2.075892e+001, 8.323632e+001)
+( 1.760108e+007,-2.069372e+001, 8.320584e+001)
+( 1.770104e+007,-2.063025e+001, 8.317432e+001)
+( 1.780099e+007,-2.056712e+001, 8.313802e+001)
+( 1.790095e+007,-2.050466e+001, 8.310817e+001)
+( 1.800090e+007,-2.044182e+001, 8.307156e+001)
+( 1.810086e+007,-2.038169e+001, 8.305143e+001)
+( 1.820081e+007,-2.031971e+001, 8.301008e+001)
+( 1.830077e+007,-2.025793e+001, 8.297836e+001)
+( 1.840072e+007,-2.019958e+001, 8.293969e+001)
+( 1.850068e+007,-2.013970e+001, 8.290762e+001)
+( 1.860063e+007,-2.007989e+001, 8.287862e+001)
+( 1.870059e+007,-2.002124e+001, 8.285409e+001)
+( 1.880054e+007,-1.996367e+001, 8.282127e+001)
+( 1.890050e+007,-1.990611e+001, 8.276776e+001)
+( 1.900045e+007,-1.984804e+001, 8.274498e+001)
+( 1.910041e+007,-1.978996e+001, 8.271298e+001)
+( 1.920036e+007,-1.973428e+001, 8.267406e+001)
+( 1.930032e+007,-1.967881e+001, 8.264895e+001)
+( 1.940027e+007,-1.962373e+001, 8.260995e+001)
+( 1.950023e+007,-1.956760e+001, 8.257158e+001)
+( 1.960018e+007,-1.951315e+001, 8.253965e+001)
+( 1.970014e+007,-1.945821e+001, 8.251914e+001)
+( 1.980009e+007,-1.940625e+001, 8.247472e+001)
+( 1.990005e+007,-1.935205e+001, 8.243518e+001)
+( 2.000000e+007,-1.929767e+001, 8.240355e+001)

*S21 FREQ DB PHASE
E21 21 22 FREQ {V(10,3)}= DB
+( 9.000000e+003,-4.396114e-002,-2.528174e+000)
+( 1.089550e+005,-1.197616e+000,-2.560859e+001)
+( 2.089100e+005,-2.974225e+000,-4.065357e+001)
+( 3.088650e+005,-4.715581e+000,-5.055462e+001)
+( 4.088200e+005,-6.294798e+000,-5.737517e+001)
+( 5.087750e+005,-7.706132e+000,-6.227939e+001)
+( 6.087300e+005,-8.962651e+000,-6.592556e+001)
+( 7.086850e+005,-1.009635e+001,-6.872067e+001)
+( 8.086400e+005,-1.112138e+001,-7.093259e+001)
+( 9.085950e+005,-1.205308e+001,-7.270277e+001)
+( 1.008550e+006,-1.291430e+001,-7.418689e+001)
+( 1.108505e+006,-1.370818e+001,-7.540554e+001)
+( 1.208460e+006,-1.445028e+001,-7.645811e+001)
+( 1.308415e+006,-1.515173e+001,-7.736332e+001)
+( 1.408370e+006,-1.581244e+001,-7.813687e+001)
+( 1.508325e+006,-1.644566e+001,-7.882431e+001)
+( 1.608280e+006,-1.704389e+001,-7.942846e+001)
+( 1.708235e+006,-1.761621e+001,-7.993749e+001)
+( 1.808190e+006,-1.817151e+001,-8.045276e+001)
+( 1.908145e+006,-1.870400e+001,-8.088998e+001)
+( 2.008100e+006,-1.922262e+001,-8.127375e+001)
+( 2.108055e+006,-1.972495e+001,-8.163996e+001)
+( 2.208010e+006,-2.022733e+001,-8.192618e+001)
+( 2.307965e+006,-2.070301e+001,-8.222069e+001)
+( 2.407920e+006,-2.117979e+001,-8.246187e+001)
+( 2.507875e+006,-2.164138e+001,-8.272254e+001)
+( 2.607830e+006,-2.210735e+001,-8.292229e+001)
+( 2.707785e+006,-2.256114e+001,-8.318735e+001)
+( 2.807740e+006,-2.301436e+001,-8.327653e+001)
+( 2.907695e+006,-2.346527e+001,-8.347736e+001)
+( 3.007650e+006,-2.390886e+001,-8.358045e+001)
+( 3.107605e+006,-2.436028e+001,-8.373867e+001)
+( 3.207560e+006,-2.481028e+001,-8.385353e+001)
+( 3.307515e+006,-2.526201e+001,-8.389293e+001)
+( 3.407470e+006,-2.572681e+001,-8.400089e+001)
+( 3.507425e+006,-2.617057e+001,-8.405707e+001)
+( 3.607380e+006,-2.662195e+001,-8.408790e+001)
+( 3.707335e+006,-2.708910e+001,-8.420733e+001)
+( 3.807290e+006,-2.755899e+001,-8.419993e+001)
+( 3.907245e+006,-2.803638e+001,-8.424856e+001)
+( 4.007200e+006,-2.852956e+001,-8.409384e+001)
+( 4.107155e+006,-2.903951e+001,-8.406719e+001)
+( 4.207110e+006,-2.955721e+001,-8.408157e+001)
+( 4.307065e+006,-3.005681e+001,-8.378269e+001)
+( 4.407020e+006,-3.060952e+001,-8.380498e+001)
+( 4.506975e+006,-3.114396e+001,-8.350104e+001)
+( 4.606930e+006,-3.173576e+001,-8.341752e+001)
+( 4.706885e+006,-3.235303e+001,-8.319516e+001)
+( 4.806840e+006,-3.297911e+001,-8.303748e+001)
+( 4.906795e+006,-3.366587e+001,-8.257098e+001)
+( 5.006750e+006,-3.432196e+001,-8.223368e+001)
+( 5.106705e+006,-3.505417e+001,-8.185610e+001)
+( 5.206660e+006,-3.583166e+001,-8.136502e+001)
+( 5.306615e+006,-3.671040e+001,-8.065201e+001)
+( 5.406570e+006,-3.760507e+001,-7.990531e+001)
+( 5.506525e+006,-3.858938e+001,-7.884449e+001)
+( 5.606480e+006,-3.964327e+001,-7.731613e+001)
+( 5.706435e+006,-4.087448e+001,-7.571718e+001)
+( 5.806390e+006,-4.218319e+001,-7.371780e+001)
+( 5.906345e+006,-4.381255e+001,-7.049272e+001)
+( 6.006300e+006,-4.562582e+001,-6.619200e+001)
+( 6.106255e+006,-4.769593e+001,-6.004337e+001)
+( 6.206210e+006,-5.008353e+001,-4.721783e+001)
+( 6.306165e+006,-5.261611e+001,-2.744940e+001)
+( 6.406120e+006,-5.401997e+001, 4.843810e+000)
+( 6.506075e+006,-5.226558e+001, 3.295352e+001)
+( 6.606030e+006,-4.968641e+001, 5.096398e+001)
+( 6.705985e+006,-4.740825e+001, 6.090796e+001)
+( 6.805940e+006,-4.555106e+001, 6.705526e+001)
+( 6.905895e+006,-4.399894e+001, 7.069299e+001)
+( 7.005850e+006,-4.269287e+001, 7.367740e+001)
+( 7.105805e+006,-4.150279e+001, 7.571094e+001)
+( 7.205760e+006,-4.042218e+001, 7.690503e+001)
+( 7.305715e+006,-3.952378e+001, 7.828026e+001)
+( 7.405670e+006,-3.867825e+001, 7.942901e+001)
+( 7.505625e+006,-3.800325e+001, 8.027627e+001)
+( 7.605580e+006,-3.728957e+001, 8.042736e+001)
+( 7.705535e+006,-3.666122e+001, 8.090201e+001)
+( 7.805490e+006,-3.611131e+001, 8.182852e+001)
+( 7.905445e+006,-3.555902e+001, 8.195882e+001)
+( 8.005400e+006,-3.507669e+001, 8.238263e+001)
+( 8.105355e+006,-3.460245e+001, 8.271989e+001)
+( 8.205310e+006,-3.417554e+001, 8.300764e+001)
+( 8.305265e+006,-3.373942e+001, 8.323386e+001)
+( 8.405220e+006,-3.334449e+001, 8.322713e+001)
+( 8.505175e+006,-3.295493e+001, 8.351574e+001)
+( 8.605130e+006,-3.260518e+001, 8.366801e+001)
+( 8.705085e+006,-3.228721e+001, 8.390789e+001)
+( 8.805040e+006,-3.194972e+001, 8.382125e+001)
+( 8.904995e+006,-3.163088e+001, 8.400338e+001)
+( 9.004950e+006,-3.135837e+001, 8.407640e+001)
+( 9.104905e+006,-3.106060e+001, 8.417734e+001)
+( 9.204860e+006,-3.080003e+001, 8.434419e+001)
+( 9.304815e+006,-3.052454e+001, 8.428345e+001)
+( 9.404770e+006,-3.026764e+001, 8.442013e+001)
+( 9.504725e+006,-3.002417e+001, 8.445457e+001)
+( 9.604680e+006,-2.978902e+001, 8.446419e+001)
+( 9.704635e+006,-2.956082e+001, 8.454357e+001)
+( 9.804590e+006,-2.933722e+001, 8.455983e+001)
+( 9.904545e+006,-2.911988e+001, 8.457974e+001)
+( 1.000450e+007,-2.891416e+001, 8.463902e+001)
+( 1.010446e+007,-2.870980e+001, 8.463703e+001)
+( 1.020441e+007,-2.851278e+001, 8.467515e+001)
+( 1.030437e+007,-2.832094e+001, 8.469697e+001)
+( 1.040432e+007,-2.813466e+001, 8.468192e+001)
+( 1.050428e+007,-2.795376e+001, 8.467635e+001)
+( 1.060423e+007,-2.777531e+001, 8.471839e+001)
+( 1.070419e+007,-2.760253e+001, 8.471304e+001)
+( 1.080414e+007,-2.743583e+001, 8.471002e+001)
+( 1.090410e+007,-2.727260e+001, 8.473705e+001)
+( 1.100405e+007,-2.710978e+001, 8.471141e+001)
+( 1.110401e+007,-2.695233e+001, 8.469945e+001)
+( 1.120396e+007,-2.679724e+001, 8.470885e+001)
+( 1.130392e+007,-2.664647e+001, 8.469108e+001)
+( 1.140387e+007,-2.650182e+001, 8.467747e+001)
+( 1.150383e+007,-2.635561e+001, 8.468405e+001)
+( 1.160378e+007,-2.621566e+001, 8.466930e+001)
+( 1.170374e+007,-2.607853e+001, 8.466157e+001)
+( 1.180369e+007,-2.594350e+001, 8.465404e+001)
+( 1.190365e+007,-2.581105e+001, 8.463420e+001)
+( 1.200360e+007,-2.567923e+001, 8.461888e+001)
+( 1.210356e+007,-2.555157e+001, 8.461298e+001)
+( 1.220351e+007,-2.542792e+001, 8.457953e+001)
+( 1.230347e+007,-2.530207e+001, 8.457249e+001)
+( 1.240342e+007,-2.518037e+001, 8.454866e+001)
+( 1.250338e+007,-2.506152e+001, 8.453336e+001)
+( 1.260333e+007,-2.494390e+001, 8.452500e+001)
+( 1.270329e+007,-2.482984e+001, 8.447945e+001)
+( 1.280324e+007,-2.471453e+001, 8.448211e+001)
+( 1.290320e+007,-2.460449e+001, 8.445979e+001)
+( 1.300315e+007,-2.449519e+001, 8.442818e+001)
+( 1.310311e+007,-2.438644e+001, 8.441877e+001)
+( 1.320306e+007,-2.428030e+001, 8.438567e+001)
+( 1.330302e+007,-2.417428e+001, 8.435401e+001)
+( 1.340297e+007,-2.407017e+001, 8.434491e+001)
+( 1.350293e+007,-2.396747e+001, 8.431573e+001)
+( 1.360288e+007,-2.386757e+001, 8.429373e+001)
+( 1.370284e+007,-2.377100e+001, 8.425688e+001)
+( 1.380279e+007,-2.367100e+001, 8.423131e+001)
+( 1.390275e+007,-2.357538e+001, 8.422382e+001)
+( 1.400270e+007,-2.348018e+001, 8.417610e+001)
+( 1.410266e+007,-2.338685e+001, 8.415049e+001)
+( 1.420261e+007,-2.329224e+001, 8.412999e+001)
+( 1.430257e+007,-2.320337e+001, 8.409959e+001)
+( 1.440252e+007,-2.311459e+001, 8.406555e+001)
+( 1.450248e+007,-2.302421e+001, 8.404931e+001)
+( 1.460243e+007,-2.293409e+001, 8.402266e+001)
+( 1.470239e+007,-2.284953e+001, 8.398697e+001)
+( 1.480234e+007,-2.276335e+001, 8.395639e+001)
+( 1.490230e+007,-2.267913e+001, 8.393515e+001)
+( 1.500225e+007,-2.259595e+001, 8.389428e+001)
+( 1.510221e+007,-2.251340e+001, 8.387836e+001)
+( 1.520216e+007,-2.243259e+001, 8.383161e+001)
+( 1.530212e+007,-2.235062e+001, 8.382166e+001)
+( 1.540207e+007,-2.227192e+001, 8.378062e+001)
+( 1.550203e+007,-2.219153e+001, 8.375369e+001)
+( 1.560198e+007,-2.211397e+001, 8.372823e+001)
+( 1.570194e+007,-2.203644e+001, 8.368950e+001)
+( 1.580189e+007,-2.195905e+001, 8.365776e+001)
+( 1.590185e+007,-2.188258e+001, 8.363388e+001)
+( 1.600180e+007,-2.180588e+001, 8.359941e+001)
+( 1.610176e+007,-2.173283e+001, 8.356586e+001)
+( 1.620171e+007,-2.166103e+001, 8.353551e+001)
+( 1.630167e+007,-2.158683e+001, 8.351355e+001)
+( 1.640162e+007,-2.151531e+001, 8.347662e+001)
+( 1.650158e+007,-2.144334e+001, 8.344210e+001)
+( 1.660153e+007,-2.137439e+001, 8.341291e+001)
+( 1.670149e+007,-2.130371e+001, 8.339008e+001)
+( 1.680144e+007,-2.123416e+001, 8.334222e+001)
+( 1.690140e+007,-2.116464e+001, 8.332770e+001)
+( 1.700135e+007,-2.109874e+001, 8.328343e+001)
+( 1.710131e+007,-2.102915e+001, 8.324382e+001)
+( 1.720126e+007,-2.096452e+001, 8.320849e+001)
+( 1.730122e+007,-2.089844e+001, 8.318885e+001)
+( 1.740117e+007,-2.083136e+001, 8.314408e+001)
+( 1.750113e+007,-2.076735e+001, 8.312288e+001)
+( 1.760108e+007,-2.070376e+001, 8.308839e+001)
+( 1.770104e+007,-2.063952e+001, 8.305037e+001)
+( 1.780099e+007,-2.057753e+001, 8.301804e+001)
+( 1.790095e+007,-2.051458e+001, 8.299011e+001)
+( 1.800090e+007,-2.045187e+001, 8.296261e+001)
+( 1.810086e+007,-2.039030e+001, 8.293181e+001)
+( 1.820081e+007,-2.032962e+001, 8.288942e+001)
+( 1.830077e+007,-2.026952e+001, 8.285352e+001)
+( 1.840072e+007,-2.020826e+001, 8.282532e+001)
+( 1.850068e+007,-2.014943e+001, 8.278704e+001)
+( 1.860063e+007,-2.009027e+001, 8.275990e+001)
+( 1.870059e+007,-2.003099e+001, 8.272963e+001)
+( 1.880054e+007,-1.997246e+001, 8.268991e+001)
+( 1.890050e+007,-1.991405e+001, 8.266129e+001)
+( 1.900045e+007,-1.985696e+001, 8.262038e+001)
+( 1.910041e+007,-1.979966e+001, 8.258729e+001)
+( 1.920036e+007,-1.974397e+001, 8.254600e+001)
+( 1.930032e+007,-1.968800e+001, 8.252921e+001)
+( 1.940027e+007,-1.963172e+001, 8.249442e+001)
+( 1.950023e+007,-1.957786e+001, 8.246017e+001)
+( 1.960018e+007,-1.952357e+001, 8.241910e+001)
+( 1.970014e+007,-1.946897e+001, 8.238639e+001)
+( 1.980009e+007,-1.941407e+001, 8.236047e+001)
+( 1.990005e+007,-1.936092e+001, 8.232030e+001)
+( 2.000000e+007,-1.930727e+001, 8.228598e+001)

*S22 FREQ DB PHASE
E22 22 3 FREQ {V(20,3)}= DB