Version 4
SHEET 1 2884 712
WIRE 416 0 336 0
WIRE 544 0 496 0
WIRE -432 80 -496 80
WIRE -288 80 -352 80
WIRE -48 80 -288 80
WIRE 336 80 336 0
WIRE 336 80 -48 80
WIRE 352 80 336 80
WIRE 448 80 432 80
WIRE 544 80 544 0
WIRE 544 80 528 80
WIRE 784 80 544 80
WIRE 880 80 784 80
WIRE 1136 80 944 80
WIRE 1280 80 1136 80
WIRE 1424 80 1280 80
WIRE 1488 80 1424 80
WIRE -496 96 -496 80
WIRE -288 96 -288 80
WIRE 1280 112 1280 80
WIRE 1136 144 1136 80
WIRE 336 160 336 80
WIRE 416 160 336 160
WIRE 544 160 544 80
WIRE 544 160 480 160
WIRE 784 176 784 80
WIRE -288 208 -288 176
WIRE 1136 240 1136 224
WIRE 1136 240 1088 240
WIRE -48 256 -48 80
WIRE 48 256 -48 256
WIRE 544 256 208 256
WIRE 736 256 624 256
WIRE 1136 256 1136 240
WIRE 1280 272 1280 192
WIRE -80 288 -224 288
WIRE 48 288 -80 288
WIRE 464 288 208 288
WIRE -224 304 -224 288
WIRE -80 304 -80 288
WIRE 48 320 -16 320
WIRE 336 320 208 320
WIRE -496 336 -496 176
WIRE -288 336 -288 272
WIRE -288 336 -496 336
WIRE 464 336 464 288
WIRE 784 336 784 272
WIRE 784 336 464 336
WIRE 48 352 16 352
WIRE 240 352 208 352
WIRE 784 352 784 336
WIRE 1280 352 1280 336
WIRE 1424 352 1424 160
WIRE 1424 352 1280 352
WIRE -496 368 -496 336
WIRE 1136 368 1136 336
WIRE -224 400 -224 368
WIRE -80 400 -80 384
WIRE -16 400 -16 320
WIRE -16 400 -80 400
WIRE 240 400 240 352
WIRE -80 416 -80 400
WIRE 1424 432 1424 352
WIRE 784 480 784 432
WIRE -80 496 -80 480
WIRE 224 496 208 496
WIRE 336 496 336 320
WIRE 336 496 304 496
WIRE 16 576 16 352
WIRE 208 576 208 496
WIRE 240 576 208 576
WIRE 336 576 336 496
WIRE 336 576 320 576
WIRE 1088 576 1088 240
WIRE 1088 576 336 576
FLAG -496 368 0
FLAG 1424 432 0
FLAG 784 480 0
FLAG -496 80 IN
FLAG 1488 80 OUT
FLAG 240 400 0
FLAG -224 400 0
FLAG -80 496 0
FLAG 1136 368 0
SYMBOL voltage -496 80 R0
WINDOW 123 0 0 Left 0
WINDOW 39 24 124 Left 2
SYMATTR SpiceLine Rser=15m
SYMATTR InstName V1
SYMATTR Value PWL(0 0 1u 12)
SYMBOL res 1440 176 R180
WINDOW 0 36 76 Left 2
WINDOW 3 36 40 Left 2
SYMATTR InstName R1
SYMATTR Value 12k
SYMBOL cap 1264 272 R0
SYMATTR InstName C1
SYMATTR Value 100n
SYMBOL diode 880 96 R270
WINDOW 0 32 32 VTop 2
WINDOW 3 0 32 VBottom 2
SYMATTR InstName D1
SYMATTR Value D1n4004rl
SYMBOL nmos 736 176 R0
WINDOW 3 60 80 Left 2
SYMATTR Value IPL65R070C7_L1
SYMATTR InstName M1
SYMATTR Prefix X
SYMBOL cap -304 208 R0
SYMATTR InstName C2
SYMATTR Value 4.7µ
SYMBOL res 1264 96 R0
SYMATTR InstName R2
SYMATTR Value 0.0162
SYMBOL res -304 80 R0
SYMATTR InstName R3
SYMATTR Value 100m
SYMBOL ind 336 96 R270
WINDOW 0 32 56 VTop 2
WINDOW 3 5 56 VBottom 2
SYMATTR InstName L1
SYMATTR Value 82µ
SYMBOL res 544 64 R90
WINDOW 0 0 56 VBottom 2
WINDOW 3 32 56 VTop 2
SYMATTR InstName R4
SYMATTR Value 140m
SYMBOL cap 480 144 R90
WINDOW 0 0 32 VBottom 2
WINDOW 3 32 32 VTop 2
SYMATTR InstName C3
SYMATTR Value 7.54p
SYMBOL res 512 -16 R90
WINDOW 0 0 56 VBottom 2
WINDOW 3 32 56 VTop 2
SYMATTR InstName R5
SYMATTR Value 54.9k
SYMBOL ind -448 96 R270
WINDOW 0 32 56 VTop 2
WINDOW 3 5 56 VBottom 2
SYMATTR InstName L2
SYMATTR Value 200n
SYMBOL UCC3803 128 304 R0
SYMATTR InstName U1
SYMBOL res 640 240 R90
WINDOW 0 0 56 VBottom 2
WINDOW 3 32 56 VTop 2
SYMATTR InstName R6
SYMATTR Value 10
SYMBOL cap -240 304 R0
SYMATTR InstName C4
SYMATTR Value 100n
SYMBOL res -64 400 R180
WINDOW 0 36 76 Left 2
WINDOW 3 36 40 Left 2
SYMATTR InstName R7
SYMATTR Value 100k
SYMBOL cap -96 416 R0
SYMATTR InstName C5
SYMATTR Value 250p
SYMBOL res 1120 128 R0
SYMATTR InstName R8
SYMATTR Value 1Meg
SYMBOL res 1120 240 R0
SYMATTR InstName R9
SYMATTR Value 11.285k
SYMBOL res 768 336 R0
SYMATTR InstName R11
SYMATTR Value 0.6
SYMBOL res 336 560 R90
WINDOW 0 0 56 VBottom 2
WINDOW 3 32 56 VTop 2
SYMATTR InstName R12
SYMATTR Value 10k
TEXT 1968 96 Left 2 !.lib models\\Infineon_Simulation Model_CoolMOS_C7_MOSFET_650V_Spice.lib
TEXT -352 456 Left 2 !.tran 6m
TEXT -464 -16 Left 2 ;2.684W Input\n2.625W Output
TEXT 1968 72 Left 2 !.lib models\\1N4004RL.LIB
TEXT 1968 48 Left 2 ;Model Includes
TEXT 1968 120 Left 2 !.lib models\\SDR1307-820KL.lib
TEXT 1968 144 Left 2 !.lib models\\UCCx803\\uccx813-3.lib
TEXT 1968 168 Left 2 !.lib models\\UCCx803\\MOSFET.lib
