Version 4
SHEET 1 2524 680
WIRE 144 80 -64 80
WIRE 208 80 144 80
WIRE 368 80 288 80
WIRE 464 80 368 80
WIRE 688 80 528 80
WIRE 832 80 688 80
WIRE -64 96 -64 80
WIRE 144 96 144 80
WIRE 368 96 368 80
WIRE 320 176 272 176
WIRE 688 176 688 144
WIRE 832 176 832 160
WIRE 832 176 688 176
WIRE -64 192 -64 176
WIRE 144 192 144 160
WIRE 144 192 -64 192
WIRE 832 192 832 176
WIRE -64 208 -64 192
WIRE 368 240 368 192
WIRE 272 272 272 176
WIRE 272 368 272 352
FLAG -64 208 0
FLAG 832 192 0
FLAG 368 240 0
FLAG 272 368 0
FLAG -64 80 IN
FLAG 832 80 OUT
SYMBOL voltage -64 80 R0
WINDOW 123 0 0 Left 0
WINDOW 39 0 0 Left 0
SYMATTR InstName V1
SYMATTR Value PWL(0 0 1u 5)
SYMBOL res 848 176 R180
WINDOW 0 36 76 Left 2
WINDOW 3 36 40 Left 2
SYMATTR InstName R1
SYMATTR Value 12k
SYMBOL cap 672 80 R0
SYMATTR InstName C1
SYMATTR Value 1µ
SYMBOL diode 464 96 R270
WINDOW 0 32 32 VTop 2
WINDOW 3 0 32 VBottom 2
SYMATTR InstName D1
SYMATTR Value D1n4004rl
SYMBOL ind 192 96 R270
WINDOW 0 32 56 VTop 2
WINDOW 3 5 56 VBottom 2
SYMATTR InstName L1
SYMATTR Value 82µ
SYMBOL nmos 320 96 R0
SYMATTR InstName M1
SYMATTR Value IPL65R070C7_L0
SYMATTR Prefix X
SYMBOL voltage 272 256 R0
WINDOW 123 0 0 Left 0
WINDOW 39 0 0 Left 0
SYMATTR InstName V2
SYMATTR Value PULSE(0 12 10u 15n 15n 0.00002075 0.000025)
SYMBOL cap 128 96 R0
SYMATTR InstName C2
SYMATTR Value 1µ
TEXT 912 264 Left 2 !.MODEL D1n4004rl d\n+IS=5.31656e-08 RS=0.0392384 N=2 EG=0.6\n+XTI=0.05 BV=400 IBV=5e-08 CJO=1e-11\n+VJ=0.7 M=0.5 FC=0.5 TT=1e-09\n+KF=0 AF=1
TEXT 920 432 Left 2 !.lib "C:\\Users\\dylan\\Documents\\nixie-clock\\nixie-clock\\models\\Infineon_Simulation Model_CoolMOS_C7_MOSFET_650V_Spice.lib"
TEXT 30 452 Left 2 !.tran 30m
TEXT -80 -16 Left 2 ;2.684W Input\n2.625W Output
